test/cases/bus_6.m
% Case to test adding data to matpower file
% tests refrence bus detection
% tests basic ac and hvdc modeling
% tests when gencost is present but not dclinecost
% quadratic objective function

function mpc = bus_3
mpc.version = '2';
mpc.baseMVA = 100.0;
mpc.bus = [
	1	 3	 0.0	 0	 0.0	 0.0	 1	    1.10000	   -0.00000	 240.0	 1	    1.10000	    0.90000;
	2	 1	 0.0	 0	 0.0	 0.0	 1	    0.92617	    7.25883	 240.0	 1	    1.10000	    0.90000;
	3	 1	 100.0	 0.0	 0.0	 0.0	 1	    0.90000	  -17.26710	 240.0	 2	    1.10000	    0.90000;
	4	 1	 100.0	 0.0	 0.0	 0.0	 1	    0.90000	  -17.26710	 240.0	 2	    1.10000	    0.90000;
	5	 1	 100.0	 0.0	 0.0	 0.0	 1	    0.90000	  -17.26710	 240.0	 2	    1.10000	    0.90000;
	6	 1	 100.0	 0.0	 0.0	 0.0	 1	    0.90000	  -17.26710	 240.0	 2	    1.10000	    0.90000;
];

mpc.gen = [
	1	 35.68	 0	 1000.0	 -1000.0	 1.1	    100.0	 1	 2000.0	 0.0;
	2	 64.32	 0	 1000.0	 -1000.0	 0.92617    100.0	 1	 1500.0	 0.0;
];

mpc.gencost = [
	2	 0.0	 0.0	 3	   0.100000	   5.000000	   0.000000;
	2	 0.0	 0.0	 3	   0.085000	   1.200000	   0.000000;
];

mpc.branch = [
	1	 2	 0.042	 1	 0.0	 100.0	 0.0	 0.0	 0.0	 0.0	 1	 -30.0	 30.0;
	2	 3	 0.065	 0.5	 0.0	 100.0	 0.0	 0.0	 0.0	 0.0	 1	 -30.0	 30.0;
	3	 4	 0.025	 0.75	 0.0	 100.0	 0.0	 0.0	 0.0	 0.0	 1	 -30.0	 30.0;
	5	 3	 0.025	 0.75	 0.0	 100.0	 0.0	 0.0	 0.0	 0.0	 1	 -30.0	 30.0;
	5	 6	 0.025	 0.75	 0.0	 100.0	 0.0	 0.0	 0.0	 0.0	 1	 -30.0	 30.0;
];
